 Abaqus/Standard 6.14-4                  DATE 31-Oct-2016 TIME 10:51:05
 SUMMARY OF JOB INFORMATION:
 STEP  INC ATT SEVERE EQUIL TOTAL  TOTAL      STEP       INC OF       DOF    IF
               DISCON ITERS ITERS  TIME/    TIME/LPF    TIME/LPF    MONITOR RIKS
               ITERS               FREQ
   1     1   1     0     1     1  0.100      0.100      0.1000    
   1     2   1     0     1     1  0.200      0.200      0.1000    
   1     3   1     0     1     1  0.300      0.300      0.1000    
   1     4   1     0     1     1  0.400      0.400      0.1000    
   1     5   1     0     1     1  0.500      0.500      0.1000    
   1     6   1     0     1     1  0.600      0.600      0.1000    
   1     7   1     0     1     1  0.700      0.700      0.1000    
   1     8   1     0     1     1  0.800      0.800      0.1000    
   1     9   1     0     1     1  0.900      0.900      0.1000    
   1    10   1     0     1     1  1.00       1.00       0.1000    
                          
 THE ANALYSIS HAS COMPLETED SUCCESSFULLY
